Ethyne
     RDKit          3D

  4  3  0  0  0  0  0  0  0  0999 V2000
   -0.5970    0.2536    0.0097 C   0  0  0  0  0  0  0  0  0  0  0  0
    0.5970    0.1315   -0.0097 C   0  0  0  0  0  0  0  0  0  0  0  0
   -1.6571    0.3621    0.0268 H   0  0  0  0  0  0  0  0  0  0  0  0
    1.6571    0.0230   -0.0268 H   0  0  0  0  0  0  0  0  0  0  0  0
  1  2  3  0
  1  3  1  0
  2  4  1  0
M  END
$$$$
