Glucose
     RDKit          3D

 24 24  0  0  0  0  0  0  0  0999 V2000
    2.9149    1.3019   -0.8465 O   0  0  0  0  0  0  0  0  0  0  0  0
    2.4943    0.1635   -0.0986 C   0  0  0  0  0  0  0  0  0  0  0  0
    1.0251   -0.1758   -0.3889 C   0  0  1  0  0  0  0  0  0  0  0  0
    0.6707   -1.2961    0.4245 O   0  0  0  0  0  0  0  0  0  0  0  0
   -0.6663   -1.7423    0.2250 C   0  0  1  0  0  0  0  0  0  0  0  0
   -0.8790   -2.8129    1.1361 O   0  0  0  0  0  0  0  0  0  0  0  0
   -1.6962   -0.6304    0.4992 C   0  0  2  0  0  0  0  0  0  0  0  0
   -3.0235   -1.0473    0.1363 O   0  0  0  0  0  0  0  0  0  0  0  0
   -1.3487    0.6146   -0.3122 C   0  0  1  0  0  0  0  0  0  0  0  0
   -2.2229    1.6915    0.0668 O   0  0  0  0  0  0  0  0  0  0  0  0
    0.1080    1.0272   -0.1081 C   0  0  2  0  0  0  0  0  0  0  0  0
    0.3657    2.1344   -0.9816 O   0  0  0  0  0  0  0  0  0  0  0  0
    3.8727    1.3990   -0.6866 H   0  0  0  0  0  0  0  0  0  0  0  0
    2.6406    0.3696    0.9676 H   0  0  0  0  0  0  0  0  0  0  0  0
    3.1333   -0.6879   -0.3581 H   0  0  0  0  0  0  0  0  0  0  0  0
    0.9480   -0.4515   -1.4494 H   0  0  0  0  0  0  0  0  0  0  0  0
   -0.7854   -2.1368   -0.7918 H   0  0  0  0  0  0  0  0  0  0  0  0
   -0.4513   -3.5862    0.7367 H   0  0  0  0  0  0  0  0  0  0  0  0
   -1.7226   -0.3941    1.5701 H   0  0  0  0  0  0  0  0  0  0  0  0
   -3.5784   -0.2523    0.2632 H   0  0  0  0  0  0  0  0  0  0  0  0
   -1.5490    0.4386   -1.3770 H   0  0  0  0  0  0  0  0  0  0  0  0
   -1.8369    2.4858   -0.3567 H   0  0  0  0  0  0  0  0  0  0  0  0
    0.2433    1.3858    0.9197 H   0  0  0  0  0  0  0  0  0  0  0  0
    1.3437    2.2017   -1.0637 H   0  0  0  0  0  0  0  0  0  0  0  0
  1  2  1  0
  2  3  1  0
  3  4  1  0
  4  5  1  0
  5  6  1  0
  5  7  1  0
  7  8  1  0
  7  9  1  0
  9 10  1  0
  9 11  1  0
 11 12  1  0
 11  3  1  0
  1 13  1  0
  2 14  1  0
  2 15  1  0
  3 16  1  6
  5 17  1  6
  6 18  1  0
  7 19  1  1
  8 20  1  0
  9 21  1  6
 10 22  1  0
 11 23  1  1
 12 24  1  0
M  END
$$$$
