Methane
     RDKit          3D

  5  4  0  0  0  0  0  0  0  0999 V2000
   -0.0000   -0.0000   -0.0000 C   0  0  0  0  0  0  0  0  0  0  0  0
   -0.6753    0.8541   -0.0854 H   0  0  0  0  0  0  0  0  0  0  0  0
   -0.3949   -0.8359   -0.5815 H   0  0  0  0  0  0  0  0  0  0  0  0
    0.0848   -0.2937    1.0485 H   0  0  0  0  0  0  0  0  0  0  0  0
    0.9855    0.2756   -0.3817 H   0  0  0  0  0  0  0  0  0  0  0  0
  1  2  1  0
  1  3  1  0
  1  4  1  0
  1  5  1  0
M  END
$$$$
