Naphthalene
     RDKit          3D

 18 19  0  0  0  0  0  0  0  0999 V2000
    2.4045   -0.7836   -0.1161 C   0  0  0  0  0  0  0  0  0  0  0  0
    2.4556    0.6073   -0.1032 C   0  0  0  0  0  0  0  0  0  0  0  0
    1.2742    1.3483   -0.0422 C   0  0  0  0  0  0  0  0  0  0  0  0
    0.0259    0.7066    0.0066 C   0  0  0  0  0  0  0  0  0  0  0  0
   -1.1720    1.4370    0.0681 C   0  0  0  0  0  0  0  0  0  0  0  0
   -2.4045    0.7836    0.1161 C   0  0  0  0  0  0  0  0  0  0  0  0
   -2.4556   -0.6073    0.1032 C   0  0  0  0  0  0  0  0  0  0  0  0
   -1.2742   -1.3483    0.0422 C   0  0  0  0  0  0  0  0  0  0  0  0
   -0.0259   -0.7066   -0.0066 C   0  0  0  0  0  0  0  0  0  0  0  0
    1.1720   -1.4370   -0.0681 C   0  0  0  0  0  0  0  0  0  0  0  0
    3.3237   -1.3616   -0.1635 H   0  0  0  0  0  0  0  0  0  0  0  0
    3.4146    1.1171   -0.1405 H   0  0  0  0  0  0  0  0  0  0  0  0
    1.3343    2.4342   -0.0330 H   0  0  0  0  0  0  0  0  0  0  0  0
   -1.1523    2.5244    0.0791 H   0  0  0  0  0  0  0  0  0  0  0  0
   -3.3237    1.3616    0.1636 H   0  0  0  0  0  0  0  0  0  0  0  0
   -3.4146   -1.1171    0.1405 H   0  0  0  0  0  0  0  0  0  0  0  0
   -1.3343   -2.4342    0.0330 H   0  0  0  0  0  0  0  0  0  0  0  0
    1.1523   -2.5244   -0.0792 H   0  0  0  0  0  0  0  0  0  0  0  0
  1  2  2  0
  2  3  1  0
  3  4  2  0
  4  5  1  0
  5  6  2  0
  6  7  1  0
  7  8  2  0
  8  9  1  0
  9 10  2  0
 10  1  1  0
  9  4  1  0
  1 11  1  0
  2 12  1  0
  3 13  1  0
  5 14  1  0
  6 15  1  0
  7 16  1  0
  8 17  1  0
 10 18  1  0
M  END
$$$$
